packages/bdgd2opendss/bdgd2opendss-1.0.0.tar.gz/bdgd2opendss-1.0.0/tests/dss_models_output/sub__SE001/17_SE001_1/SegmentosMT_202312598_17_SE001_1_------1-----.dss
New "Line.SMT_34096" phases=3 bus1="329181.1.2.3" bus2="219551.1.2.3" linecode="36_3" length=0.042720000 units=km
New "Line.SMT_34523" phases=3 bus1="663911.1.2.3" bus2="779111.1.2.3" linecode="36_3" length=0.000650000 units=km
New "Line.SMT_34597" phases=3 bus1="17CF998.1.2.3" bus2="320471.1.2.3" linecode="10_3" length=0.028510000 units=km
New "Line.SMT_34599" phases=3 bus1="288401.1.2.3" bus2="780471.1.2.3" linecode="36_3" length=0.000760000 units=km
New "Line.SMT_34652" phases=3 bus1="779911.1.2.3" bus2="779921.1.2.3" linecode="142_3" length=0.015150000 units=km
New "Line.SMT_34651" phases=3 bus1="779901.1.2.3" bus2="779911.1.2.3" linecode="142_3" length=0.020760000 units=km
New "Line.SMT_34650" phases=3 bus1="779891.1.2.3" bus2="779901.1.2.3" linecode="142_3" length=0.031520000 units=km
New "Line.SMT_34649" phases=3 bus1="1_SE001_17.1.2.3" bus2="789551.1.2.3" linecode="142_3" length=0.006520000 units=km
New "Line.SMT_34669" phases=3 bus1="780071.1.2.3" bus2="780091.1.2.3" linecode="142_3" length=0.042350000 units=km
New "Line.SMT_34667" phases=3 bus1="780051.1.2.3" bus2="780071.1.2.3" linecode="142_3" length=0.038670000 units=km
New "Line.SMT_34665" phases=3 bus1="780031.1.2.3" bus2="780051.1.2.3" linecode="142_3" length=0.030800000 units=km
New "Line.SMT_34663" phases=3 bus1="780011.1.2.3" bus2="780031.1.2.3" linecode="142_3" length=0.033480000 units=km
New "Line.SMT_34661" phases=3 bus1="779991.1.2.3" bus2="780011.1.2.3" linecode="142_3" length=0.042870000 units=km
New "Line.SMT_34659" phases=3 bus1="779951.1.2.3" bus2="779991.1.2.3" linecode="142_3" length=0.045420000 units=km
New "Line.SMT_34655" phases=3 bus1="17CS1753.1.2.3" bus2="780511.1.2.3" linecode="142_3" length=0.005790000 units=km
New "Line.SMT_34654" phases=3 bus1="779931.1.2.3" bus2="779941.1.2.3" linecode="142_3" length=0.021730000 units=km
New "Line.SMT_34653" phases=3 bus1="779921.1.2.3" bus2="779931.1.2.3" linecode="142_3" length=0.010820000 units=km
New "Line.SMT_34684" phases=3 bus1="780091.1.2.3" bus2="780241.1.2.3" linecode="10_3" length=0.000910000 units=km
New "Line.SMT_34682" phases=3 bus1="780211.1.2.3" bus2="780222.1.2.3" linecode="142_3" length=0.037180000 units=km
New "Line.SMT_34681" phases=3 bus1="780191.1.2.3" bus2="780211.1.2.3" linecode="142_3" length=0.050070000 units=km
New "Line.SMT_34677" phases=3 bus1="780151.1.2.3" bus2="780171.1.2.3" linecode="142_3" length=0.047970000 units=km
New "Line.SMT_34675" phases=3 bus1="780131.1.2.3" bus2="780151.1.2.3" linecode="142_3" length=0.049320000 units=km
New "Line.SMT_34673" phases=3 bus1="780111.1.2.3" bus2="780131.1.2.3" linecode="142_3" length=0.046800000 units=km
New "Line.SMT_34671" phases=3 bus1="780091.1.2.3" bus2="780111.1.2.3" linecode="142_3" length=0.049180000 units=km
New "Line.SMT_34738" phases=3 bus1="780222.1.2.3" bus2="288401.1.2.3" linecode="36_3" length=0.001560000 units=km
New "Line.SMT_34737" phases=3 bus1="780511.1.2.3" bus2="779951.1.2.3" linecode="142_3" length=0.044190000 units=km
New "Line.SMT_35351" phases=3 bus1="479801.1.2.3" bus2="718131.1.2.3" linecode="3_3" length=0.044080000 units=km
New "Line.SMT_35347" phases=3 bus1="479792.1.2.3" bus2="479801.1.2.3" linecode="3_3" length=0.038250000 units=km
New "Line.SMT_35346" phases=3 bus1="785051.1.2.3" bus2="479792.1.2.3" linecode="3_3" length=0.045600000 units=km
New "Line.SMT_35345" phases=3 bus1="785051.1.2.3" bus2="345061.1.2.3" linecode="10_3" length=0.017070000 units=km
New "Line.SMT_35368" phases=3 bus1="784581.1.2.3" bus2="784591.1.2.3" linecode="3_3" length=0.041880000 units=km
New "Line.SMT_35367" phases=3 bus1="784571.1.2.3" bus2="784581.1.2.3" linecode="3_3" length=0.040280000 units=km
New "Line.SMT_35366" phases=3 bus1="785051.1.2.3" bus2="784571.1.2.3" linecode="3_3" length=0.011550000 units=km
New "Line.SMT_35354" phases=3 bus1="345061.1.2.3" bus2="768581.1.2.3" linecode="10_3" length=0.051530000 units=km
New "Line.SMT_35353" phases=3 bus1="718141.1.2.3" bus2="718161.1.2.3" linecode="3_3" length=0.038360000 units=km
New "Line.SMT_35352" phases=3 bus1="718131.1.2.3" bus2="718141.1.2.3" linecode="3_3" length=0.041000000 units=km
New "Line.SMT_35378" phases=3 bus1="785061.1.2.3" bus2="784691.1.2.3" linecode="3_3" length=0.027060000 units=km
New "Line.SMT_35377" phases=3 bus1="784671.1.2.3" bus2="784681.1.2.3" linecode="3_3" length=0.039570000 units=km
New "Line.SMT_35376" phases=3 bus1="784661.1.2.3" bus2="784671.1.2.3" linecode="3_3" length=0.042100000 units=km
New "Line.SMT_35375" phases=3 bus1="784621.1.2.3" bus2="784661.1.2.3" linecode="3_3" length=0.052770000 units=km
New "Line.SMT_35374" phases=3 bus1="784641.1.2.3" bus2="784651.1.2.3" linecode="3_3" length=0.047920000 units=km
New "Line.SMT_35373" phases=3 bus1="784631.1.2.3" bus2="784641.1.2.3" linecode="3_3" length=0.038570000 units=km
New "Line.SMT_35372" phases=3 bus1="784661.1.2.3" bus2="784631.1.2.3" linecode="3_3" length=0.033290000 units=km
New "Line.SMT_35371" phases=3 bus1="784611.1.2.3" bus2="784621.1.2.3" linecode="3_3" length=0.041990000 units=km
New "Line.SMT_35370" phases=3 bus1="784601.1.2.3" bus2="784611.1.2.3" linecode="3_3" length=0.043970000 units=km
New "Line.SMT_35369" phases=3 bus1="784591.1.2.3" bus2="784601.1.2.3" linecode="3_3" length=0.038710000 units=km
New "Line.SMT_35415" phases=3 bus1="784681.1.2.3" bus2="785061.1.2.3" linecode="3_3" length=0.026850000 units=km
New "Line.SMT_35770" phases=3 bus1="215451.1.2.3" bus2="788021.1.2.3" linecode="36_3" length=0.040020000 units=km
New "Line.SMT_35784" phases=3 bus1="787851.1.2.3" bus2="701912.1.2.3" linecode="3_3" length=0.026200000 units=km
New "Line.SMT_35783" phases=3 bus1="633152.1.2.3" bus2="633171.1.2.3" linecode="10_3" length=0.034890000 units=km
New "Line.SMT_35782" phases=3 bus1="787911.1.2.3" bus2="633152.1.2.3" linecode="10_3" length=0.042040000 units=km
New "Line.SMT_35781" phases=3 bus1="618331.1.2.3" bus2="787971.1.2.3" linecode="36_3" length=0.053260000 units=km
New "Line.SMT_35779" phases=3 bus1="606522.1.2.3" bus2="606531.1.2.3" linecode="3_3" length=0.050650000 units=km
New "Line.SMT_35778" phases=3 bus1="701912.1.2.3" bus2="606522.1.2.3" linecode="3_3" length=0.026620000 units=km
New "Line.SMT_35776" phases=3 bus1="298601.1.2.3" bus2="298591.1.2.3" linecode="36_3" length=0.045280000 units=km
New "Line.SMT_35775" phases=3 bus1="298591.1.2.3" bus2="787661.1.2.3" linecode="36_3" length=0.054590000 units=km
New "Line.SMT_35773" phases=3 bus1="243281.1.2.3" bus2="788001.1.2.3" linecode="36_3" length=0.047710000 units=km
New "Line.SMT_35791" phases=3 bus1="787661.1.2.3" bus2="243281.1.2.3" linecode="36_3" length=0.062620000 units=km
New "Line.SMT_35824" phases=3 bus1="788021.1.2.3" bus2="298601.1.2.3" linecode="36_3" length=0.046810000 units=km
New "Line.SMT_35822" phases=3 bus1="788001.1.2.3" bus2="618331.1.2.3" linecode="36_3" length=0.047950000 units=km
New "Line.SMT_35820" phases=3 bus1="17CS37.1.2.3" bus2="216722.1.2.3" linecode="36_3" length=0.043640000 units=km
New "Line.SMT_35819" phases=3 bus1="787961.1.2.3" bus2="787941.1.2.3" linecode="142_3" length=0.023120000 units=km
New "Line.SMT_35818" phases=3 bus1="787941.1.2.3" bus2="787901.1.2.3" linecode="142_3" length=0.013150000 units=km
New "Line.SMT_35815" phases=3 bus1="787941.1.2.3" bus2="787911.1.2.3" linecode="142_3" length=0.008390000 units=km
New "Line.SMT_35814" phases=3 bus1="787901.1.2.3" bus2="215451.1.2.3" linecode="36_3" length=0.036190000 units=km
New "Line.SMT_35813" phases=3 bus1="787941.1.2.3" bus2="787891.1.2.3" linecode="142_3" length=0.028290000 units=km
New "Line.SMT_35810" phases=3 bus1="787871.1.2.3" bus2="787861.1.2.3" linecode="3_3" length=0.033380000 units=km
New "Line.SMT_35809" phases=3 bus1="787861.1.2.3" bus2="787851.1.2.3" linecode="3_3" length=0.027260000 units=km
New "Line.SMT_35825" phases=3 bus1="218841.1.2.3" bus2="787961.1.2.3" linecode="36_3" length=0.020770000 units=km
New "Line.SMT_36044" phases=3 bus1="789551.1.2.3" bus2="779891.1.2.3" linecode="142_3" length=0.024600000 units=km
New "Line.SMT_36116" phases=3 bus1="17CF847.1.2.3" bus2="297701.1.2.3" linecode="10_3" length=0.028950000 units=km
New "Line.SMT_36115" phases=3 bus1="297731.1.2.3" bus2="298471.1.2.3" linecode="10_3" length=0.043050000 units=km
New "Line.SMT_36114" phases=3 bus1="17CF1269.1.2.3" bus2="239461.1.2.3" linecode="10_3" length=0.093640000 units=km
New "Line.SMT_36288" phases=3 bus1="791091.1.2.3" bus2="791101.1.2.3" linecode="3_3" length=0.043160000 units=km
New "Line.SMT_36287" phases=3 bus1="791081.1.2.3" bus2="791091.1.2.3" linecode="3_3" length=0.039030000 units=km
New "Line.SMT_36286" phases=3 bus1="791071.1.2.3" bus2="791081.1.2.3" linecode="3_3" length=0.036720000 units=km
New "Line.SMT_36285" phases=3 bus1="791061.1.2.3" bus2="791071.1.2.3" linecode="3_3" length=0.043880000 units=km
New "Line.SMT_36284" phases=3 bus1="766031.1.2.3" bus2="800371.1.2.3" linecode="3_3" length=0.005930000 units=km
New "Line.SMT_36283" phases=3 bus1="791101.1.2.3" bus2="287642.1.2.3" linecode="3_3" length=0.046870000 units=km
New "Line.SMT_36325" phases=3 bus1="218901.1.2.3" bus2="218911.1.2.3" linecode="13_3" length=0.044100000 units=km
New "Line.SMT_36496" phases=1 bus1="268311.1" bus2="792141.1" linecode="1_1" length=0.097330000 units=km
New "Line.SMT_36495" phases=1 bus1="268281.1" bus2="781841.1" linecode="1_1" length=0.017580000 units=km
New "Line.SMT_36494" phases=1 bus1="268301.1" bus2="268311.1" linecode="1_1" length=0.071020000 units=km
New "Line.SMT_36493" phases=1 bus1="781841.1" bus2="268301.1" linecode="1_1" length=0.082130000 units=km
New "Line.SMT_37537" phases=3 bus1="780171.1.2.3" bus2="798491.1.2.3" linecode="142_3" length=0.020980000 units=km
New "Line.SMT_37536" phases=3 bus1="798491.1.2.3" bus2="780191.1.2.3" linecode="142_3" length=0.024160000 units=km
New "Line.SMT_37699" phases=3 bus1="287642.1.2.3" bus2="753131.1.2.3" linecode="10_3" length=0.065000000 units=km
New "Line.SMT_37828" phases=3 bus1="800371.1.2.3" bus2="791061.1.2.3" linecode="3_3" length=0.036880000 units=km
New "Line.SMT_38196" phases=3 bus1="802301.1.2.3" bus2="802311.1.2.3" linecode="3_3" length=0.048390000 units=km
New "Line.SMT_38195" phases=3 bus1="766121.1.2.3" bus2="802301.1.2.3" linecode="3_3" length=0.047440000 units=km
New "Line.SMT_39275" phases=3 bus1="255521.1.2.3" bus2="255511.1.2.3" linecode="36_3" length=0.050250000 units=km
New "Line.SMT_39274" phases=3 bus1="810741.1.2.3" bus2="273061.1.2.3" linecode="36_3" length=0.041240000 units=km
New "Line.SMT_39277" phases=3 bus1="787891.1.2.3" bus2="810771.1.2.3" linecode="3_3" length=0.016830000 units=km
New "Line.SMT_39276" phases=3 bus1="810771.1.2.3" bus2="787871.1.2.3" linecode="3_3" length=0.032500000 units=km
New "Line.SMT_39335" phases=3 bus1="811121.1.2.3" bus2="811131.1.2.3" linecode="10_3" length=0.056150000 units=km
New "Line.SMT_39334" phases=3 bus1="811111.1.2.3" bus2="811121.1.2.3" linecode="10_3" length=0.083980000 units=km
New "Line.SMT_39333" phases=3 bus1="746891.1.2.3" bus2="811111.1.2.3" linecode="10_3" length=0.073200000 units=km
New "Line.SMT_39376" phases=1 bus1="250841.2" bus2="811471.2" linecode="1_1" length=0.113990000 units=km
New "Line.SMT_39543" phases=3 bus1="476021.1.2.3" bus2="239511.1.2.3" linecode="10_3" length=0.091050000 units=km
New "Line.SMT_39680" phases=3 bus1="272141.1.2.3" bus2="814291.1.2.3" linecode="10_3" length=0.076250000 units=km
New "Line.SMT_39679" phases=3 bus1="272131.1.2.3" bus2="814281.1.2.3" linecode="10_3" length=0.034710000 units=km
New "Line.SMT_39678" phases=3 bus1="268152.1.2.3" bus2="700371.1.2.3" linecode="10_3" length=0.002760000 units=km
New "Line.SMT_39677" phases=3 bus1="814281.1.2.3" bus2="272141.1.2.3" linecode="10_3" length=0.041620000 units=km
New "Line.SMT_39676" phases=3 bus1="814291.1.2.3" bus2="268152.1.2.3" linecode="10_3" length=0.099840000 units=km
New "Line.SMT_39751" phases=1 bus1="250961.2" bus2="814871.2" linecode="1_1" length=0.091470000 units=km
New "Line.SMT_39750" phases=1 bus1="250951.2" bus2="250961.2" linecode="1_1" length=0.125170000 units=km
New "Line.SMT_39749" phases=1 bus1="250941.2" bus2="250951.2" linecode="1_1" length=0.121340000 units=km
New "Line.SMT_39763" phases=3 bus1="273011.1.2.3" bus2="814941.1.2.3" linecode="36_3" length=0.033530000 units=km
New "Line.SMT_39762" phases=3 bus1="814941.1.2.3" bus2="272991.1.2.3" linecode="36_3" length=0.041260000 units=km
New "Line.SMT_40276" phases=3 bus1="279432.1.2.3" bus2="807791.1.2.3" linecode="3_3" length=0.041530000 units=km
New "Line.SMT_40275" phases=3 bus1="342561.1.2.3" bus2="376391.1.2.3" linecode="3_3" length=0.022250000 units=km
New "Line.SMT_40274" phases=3 bus1="807791.1.2.3" bus2="342561.1.2.3" linecode="3_3" length=0.022470000 units=km
New "Line.SMT_40273" phases=3 bus1="279421.1.2.3" bus2="279432.1.2.3" linecode="142_3" length=0.019030000 units=km
New "Line.SMT_40272" phases=3 bus1="219481.1.2.3" bus2="279421.1.2.3" linecode="142_3" length=0.047280000 units=km
New "Line.SMT_40271" phases=3 bus1="360001.1.2.3" bus2="219521.1.2.3" linecode="13_3" length=0.003910000 units=km
New "Line.SMT_40270" phases=3 bus1="360001.1.2.3" bus2="219491.1.2.3" linecode="13_3" length=0.028850000 units=km
New "Line.SMT_40269" phases=3 bus1="219491.1.2.3" bus2="219481.1.2.3" linecode="13_3" length=0.043010000 units=km
New "Line.SMT_40475" phases=3 bus1="255511.1.2.3" bus2="810741.1.2.3" linecode="36_3" length=0.028800000 units=km
New "Line.SMT_40474" phases=3 bus1="639561.1.2.3" bus2="639571.1.2.3" linecode="3_3" length=0.039970000 units=km
New "Line.SMT_40473" phases=3 bus1="635161.1.2.3" bus2="639561.1.2.3" linecode="3_3" length=0.039080000 units=km
New "Line.SMT_40472" phases=3 bus1="639571.1.2.3" bus2="297591.1.2.3" linecode="3_3" length=0.052210000 units=km
New "Line.SMT_40674" phases=3 bus1="278211.1.2.3" bus2="671351.1.2.3" linecode="10_3" length=0.068050000 units=km
New "Line.SMT_41329" phases=3 bus1="268271.1.2.3" bus2="268281.1.2.3" linecode="10_3" length=0.060470000 units=km
New "Line.SMT_41416" phases=3 bus1="828441.1.2.3" bus2="828401.1.2.3" linecode="28_3" length=0.019510000 units=km
New "Line.SMT_41415" phases=3 bus1="828441.1.2.3" bus2="828391.1.2.3" linecode="28_3" length=0.010320000 units=km
New "Line.SMT_41414" phases=3 bus1="17CS1936.1.2.3" bus2="785051.1.2.3" linecode="10_3" length=0.011290000 units=km
New "Line.SMT_41413" phases=3 bus1="828401.1.2.3" bus2="651042.1.2.3" linecode="3_3" length=0.049940000 units=km
New "Line.SMT_41412" phases=3 bus1="273022.1.2.3" bus2="451291.1.2.3" linecode="10_3" length=0.003750000 units=km
New "Line.SMT_41411" phases=3 bus1="828462.1.2.3" bus2="329321.1.2.3" linecode="10_3" length=0.002820000 units=km
New "Line.SMT_41410" phases=3 bus1="828431.1.2.3" bus2="279354.1.2.3" linecode="3_3" length=0.037780000 units=km
New "Line.SMT_41409" phases=3 bus1="279354.1.2.3" bus2="279341.1.2.3" linecode="10_3" length=0.051110000 units=km
New "Line.SMT_41408" phases=3 bus1="828391.1.2.3" bus2="273022.1.2.3" linecode="28_3" length=0.014590000 units=km
New "Line.SMT_41407" phases=3 bus1="828441.1.2.3" bus2="272971.1.2.3" linecode="36_3" length=0.018120000 units=km
New "Line.SMT_41406" phases=3 bus1="17CS674.1.2.3" bus2="267381.1.2.3" linecode="10_3" length=0.036510000 units=km
New "Line.SMT_41405" phases=3 bus1="828411.1.2.3" bus2="267372.1.2.3" linecode="3_3" length=0.020610000 units=km
New "Line.SMT_41423" phases=3 bus1="279201.1.2.3" bus2="828471.1.2.3" linecode="10_3" length=0.001860000 units=km
New "Line.SMT_41422" phases=3 bus1="828401.1.2.3" bus2="828462.1.2.3" linecode="3_3" length=0.015630000 units=km
New "Line.SMT_41421" phases=3 bus1="267372.1.2.3" bus2="828451.1.2.3" linecode="10_3" length=0.001990000 units=km
New "Line.SMT_41420" phases=3 bus1="272981.1.2.3" bus2="828441.1.2.3" linecode="36_3" length=0.013790000 units=km
New "Line.SMT_41419" phases=3 bus1="828421.1.2.3" bus2="828431.1.2.3" linecode="3_3" length=0.037440000 units=km
New "Line.SMT_41418" phases=3 bus1="828411.1.2.3" bus2="828421.1.2.3" linecode="3_3" length=0.027310000 units=km
New "Line.SMT_41417" phases=3 bus1="651042.1.2.3" bus2="828411.1.2.3" linecode="3_3" length=0.050560000 units=km
New "Line.SMT_1297" phases=3 bus1="682181.1.2.3" bus2="651461.1.2.3" linecode="10_3" length=0.025610000 units=km
New "Line.SMT_1296" phases=3 bus1="272111.1.2.3" bus2="651451.1.2.3" linecode="10_3" length=0.058690000 units=km
New "Line.SMT_1811" phases=3 bus1="639541.1.2.3" bus2="639551.1.2.3" linecode="10_3" length=0.024740000 units=km
New "Line.SMT_1810" phases=3 bus1="635161.1.2.3" bus2="639511.1.2.3" linecode="10_3" length=0.028130000 units=km
New "Line.SMT_1809" phases=3 bus1="635161.1.2.3" bus2="639531.1.2.3" linecode="10_3" length=0.019440000 units=km
New "Line.SMT_1897" phases=3 bus1="639551.1.2.3" bus2="635361.1.2.3" linecode="10_3" length=0.002690000 units=km
New "Line.SMT_1896" phases=3 bus1="639511.1.2.3" bus2="639541.1.2.3" linecode="10_3" length=0.036670000 units=km
New "Line.SMT_2339" phases=3 bus1="549751.1.2.3" bus2="549721.1.2.3" linecode="10_3" length=0.014530000 units=km
New "Line.SMT_2508" phases=3 bus1="549721.1.2.3" bus2="549731.1.2.3" linecode="10_3" length=0.012080000 units=km
New "Line.SMT_2494" phases=3 bus1="549631.1.2.3" bus2="549641.1.2.3" linecode="3_3" length=0.015810000 units=km
New "Line.SMT_2493" phases=3 bus1="549751.1.2.3" bus2="549631.1.2.3" linecode="10_3" length=0.010540000 units=km
New "Line.SMT_2547" phases=3 bus1="549751.1.2.3" bus2="549671.1.2.3" linecode="10_3" length=0.007950000 units=km
New "Line.SMT_2546" phases=3 bus1="192631.1.2.3" bus2="549751.1.2.3" linecode="10_3" length=0.011670000 units=km
New "Line.SMT_2545" phases=3 bus1="192631.1.2.3" bus2="549681.1.2.3" linecode="10_3" length=0.015620000 units=km
New "Line.SMT_2650" phases=3 bus1="549651.1.2.3" bus2="549661.1.2.3" linecode="3_3" length=0.016160000 units=km
New "Line.SMT_2759" phases=3 bus1="549731.1.2.3" bus2="549741.1.2.3" linecode="10_3" length=0.015260000 units=km
New "Line.SMT_3269" phases=3 bus1="201751.1.2.3" bus2="663131.1.2.3" linecode="10_3" length=0.003030000 units=km
New "Line.SMT_3609" phases=3 bus1="133241.1.2.3" bus2="663911.1.2.3" linecode="36_3" length=0.054910000 units=km
New "Line.SMT_9163" phases=3 bus1="218881.1.2.3" bus2="361881.1.2.3" linecode="36_3" length=0.009590000 units=km
New "Line.SMT_9180" phases=3 bus1="278541.1.2.3" bus2="278551.1.2.3" linecode="10_3" length=0.039660000 units=km
New "Line.SMT_9229" phases=3 bus1="201751.1.2.3" bus2="298561.1.2.3" linecode="10_3" length=0.087660000 units=km
New "Line.SMT_9250" phases=3 bus1="288391.1.2.3" bus2="288381.1.2.3" linecode="36_3" length=0.056520000 units=km
New "Line.SMT_9355" phases=3 bus1="351411.1.2.3" bus2="297651.1.2.3" linecode="10_3" length=0.012610000 units=km
New "Line.SMT_9403" phases=3 bus1="309471.1.2.3" bus2="218901.1.2.3" linecode="13_3" length=0.023710000 units=km
New "Line.SMT_9444" phases=3 bus1="360001.1.2.3" bus2="219501.1.2.3" linecode="36_3" length=0.016810000 units=km
New "Line.SMT_9440" phases=3 bus1="219501.1.2.3" bus2="219511.1.2.3" linecode="36_3" length=0.041620000 units=km
New "Line.SMT_9461" phases=3 bus1="363331.1.2.3" bus2="269221.1.2.3" linecode="10_3" length=0.027210000 units=km
New "Line.SMT_9491" phases=3 bus1="361881.1.2.3" bus2="309471.1.2.3" linecode="13_3" length=0.021400000 units=km
New "Line.SMT_9580" phases=3 bus1="298491.1.2.3" bus2="298551.1.2.3" linecode="10_3" length=0.057800000 units=km
New "Line.SMT_9645" phases=3 bus1="297511.1.2.3" bus2="297521.1.2.3" linecode="10_3" length=0.042720000 units=km
New "Line.SMT_9638" phases=3 bus1="17CF645.1.2.3" bus2="268161.1.2.3" linecode="10_3" length=0.103320000 units=km
New "Line.SMT_9635" phases=3 bus1="363341.1.2.3" bus2="269251.1.2.3" linecode="10_3" length=0.006060000 units=km
New "Line.SMT_9622" phases=3 bus1="297651.1.2.3" bus2="297641.1.2.3" linecode="10_3" length=0.047130000 units=km
New "Line.SMT_9672" phases=3 bus1="272961.1.2.3" bus2="272951.1.2.3" linecode="36_3" length=0.029150000 units=km
New "Line.SMT_9711" phases=3 bus1="780222.1.2.3" bus2="288391.1.2.3" linecode="36_3" length=0.049270000 units=km
New "Line.SMT_9707" phases=3 bus1="298571.1.2.3" bus2="239451.1.2.3" linecode="10_3" length=0.096540000 units=km
New "Line.SMT_9706" phases=3 bus1="278631.1.2.3" bus2="278621.1.2.3" linecode="10_3" length=0.017730000 units=km
New "Line.SMT_9738" phases=3 bus1="269221.1.2.3" bus2="269231.1.2.3" linecode="10_3" length=0.042530000 units=km
New "Line.SMT_9731" phases=3 bus1="17CS1279.1.2.3" bus2="272071.1.2.3" linecode="10_3" length=0.094440000 units=km
New "Line.SMT_9747" phases=1 bus1="250901.2" bus2="388941.2" linecode="29_1" length=0.059300000 units=km
New "Line.SMT_9779" phases=3 bus1="295991.1.2.3" bus2="296001.1.2.3" linecode="10_3" length=0.077160000 units=km
New "Line.SMT_9777" phases=3 bus1="360421.1.2.3" bus2="273041.1.2.3" linecode="36_3" length=0.045610000 units=km
New "Line.SMT_9770" phases=3 bus1="278551.1.2.3" bus2="278561.1.2.3" linecode="10_3" length=0.036060000 units=km
New "Line.SMT_9764" phases=3 bus1="297521.1.2.3" bus2="297531.1.2.3" linecode="10_3" length=0.034670000 units=km
New "Line.SMT_9804" phases=3 bus1="268171.1.2.3" bus2="268181.1.2.3" linecode="10_3" length=0.099050000 units=km
New "Line.SMT_9799" phases=3 bus1="239511.1.2.3" bus2="239521.1.2.3" linecode="10_3" length=0.099720000 units=km
New "Line.SMT_9791" phases=3 bus1="307101.1.2.3" bus2="307111.1.2.3" linecode="10_3" length=0.125610000 units=km
New "Line.SMT_9786" phases=3 bus1="272971.1.2.3" bus2="372351.1.2.3" linecode="36_3" length=0.040310000 units=km
New "Line.SMT_9783" phases=3 bus1="272911.1.2.3" bus2="272921.1.2.3" linecode="10_3" length=0.028560000 units=km
New "Line.SMT_9819" phases=3 bus1="272901.1.2.3" bus2="272911.1.2.3" linecode="10_3" length=0.048470000 units=km
New "Line.SMT_9815" phases=3 bus1="298471.1.2.3" bus2="298491.1.2.3" linecode="10_3" length=0.052840000 units=km
New "Line.SMT_9810" phases=3 bus1="297631.1.2.3" bus2="297511.1.2.3" linecode="10_3" length=0.040310000 units=km
New "Line.SMT_9845" phases=3 bus1="279341.1.2.3" bus2="344571.1.2.3" linecode="10_3" length=0.007630000 units=km
New "Line.SMT_9841" phases=1 bus1="250901.2" bus2="250921.2" linecode="1_1" length=0.090800000 units=km
New "Line.SMT_9830" phases=3 bus1="239501.1.2.3" bus2="476021.1.2.3" linecode="10_3" length=0.081570000 units=km
New "Line.SMT_9862" phases=3 bus1="268161.1.2.3" bus2="268171.1.2.3" linecode="10_3" length=0.101120000 units=km
New "Line.SMT_9861" phases=3 bus1="278641.1.2.3" bus2="278631.1.2.3" linecode="10_3" length=0.018830000 units=km
New "Line.SMT_9853" phases=3 bus1="273041.1.2.3" bus2="273011.1.2.3" linecode="36_3" length=0.040710000 units=km
New "Line.SMT_9852" phases=3 bus1="351411.1.2.3" bus2="297631.1.2.3" linecode="10_3" length=0.034070000 units=km
New "Line.SMT_9886" phases=3 bus1="201751.1.2.3" bus2="295461.1.2.3" linecode="10_3" length=0.114980000 units=km
New "Line.SMT_9877" phases=3 bus1="272951.1.2.3" bus2="329181.1.2.3" linecode="36_3" length=0.031380000 units=km
New "Line.SMT_9900" phases=3 bus1="17CF951.1.2.3" bus2="307101.1.2.3" linecode="10_3" length=0.164520000 units=km
New "Line.SMT_9926" phases=1 bus1="250841.2" bus2="250851.2" linecode="1_1" length=0.118270000 units=km
New "Line.SMT_9920" phases=3 bus1="279191.1.2.3" bus2="279201.1.2.3" linecode="10_3" length=0.036930000 units=km
New "Line.SMT_9953" phases=1 bus1="250921.2" bus2="250931.2" linecode="1_1" length=0.101610000 units=km
New "Line.SMT_9942" phases=3 bus1="298551.1.2.3" bus2="201751.1.2.3" linecode="10_3" length=0.071870000 units=km
New "Line.SMT_9963" phases=3 bus1="278621.1.2.3" bus2="418631.1.2.3" linecode="10_3" length=0.007500000 units=km
New "Line.SMT_9984" phases=1 bus1="250811.2" bus2="250821.2" linecode="1_1" length=0.116520000 units=km
New "Line.SMT_10021" phases=3 bus1="278621.1.2.3" bus2="297691.1.2.3" linecode="10_3" length=0.037760000 units=km
New "Line.SMT_10041" phases=3 bus1="272121.1.2.3" bus2="272131.1.2.3" linecode="10_3" length=0.099060000 units=km
New "Line.SMT_10093" phases=1 bus1="250941.2" bus2="265561.2" linecode="1_1" length=0.126670000 units=km
New "Line.SMT_10119" phases=3 bus1="272111.1.2.3" bus2="272121.1.2.3" linecode="10_3" length=0.098480000 units=km
New "Line.SMT_10193" phases=3 bus1="239451.1.2.3" bus2="789971.1.2.3" linecode="10_3" length=0.004320000 units=km
New "Line.SMT_10218" phases=1 bus1="250821.2" bus2="250831.2" linecode="1_1" length=0.136030000 units=km
New "Line.SMT_10270" phases=1 bus1="250891.2" bus2="250901.2" linecode="1_1" length=0.117070000 units=km
New "Line.SMT_10314" phases=3 bus1="268221.1.2.3" bus2="268271.1.2.3" linecode="10_3" length=0.100080000 units=km
New "Line.SMT_10296" phases=3 bus1="268191.1.2.3" bus2="268211.1.2.3" linecode="10_3" length=0.099080000 units=km
New "Line.SMT_10372" phases=3 bus1="418631.1.2.3" bus2="789981.1.2.3" linecode="10_3" length=0.001580000 units=km
New "Line.SMT_10360" phases=3 bus1="661061.1.2.3" bus2="297731.1.2.3" linecode="10_3" length=0.022210000 units=km
New "Line.SMT_10456" phases=3 bus1="687341.1.2.3" bus2="268191.1.2.3" linecode="10_3" length=0.041050000 units=km
New "Line.SMT_10463" phases=1 bus1="250831.2" bus2="250841.2" linecode="1_1" length=0.098330000 units=km
New "Line.SMT_10498" phases=1 bus1="250851.2" bus2="250891.2" linecode="1_1" length=0.143600000 units=km
New "Line.SMT_10542" phases=3 bus1="239481.1.2.3" bus2="239491.1.2.3" linecode="10_3" length=0.080810000 units=km
New "Line.SMT_10545" phases=3 bus1="268271.1.2.3" bus2="268331.1.2.3" linecode="10_3" length=0.046000000 units=km
New "Line.SMT_10658" phases=3 bus1="239471.1.2.3" bus2="377171.1.2.3" linecode="10_3" length=0.122200000 units=km
New "Line.SMT_10654" phases=3 bus1="239471.1.2.3" bus2="239481.1.2.3" linecode="10_3" length=0.098860000 units=km
New "Line.SMT_10845" phases=1 bus1="268271.2" bus2="250811.2" linecode="1_1" length=0.127610000 units=km
New "Line.SMT_10949" phases=3 bus1="288371.1.2.3" bus2="133241.1.2.3" linecode="36_3" length=0.097300000 units=km
New "Line.SMT_10978" phases=3 bus1="239491.1.2.3" bus2="239501.1.2.3" linecode="10_3" length=0.087210000 units=km
New "Line.SMT_11014" phases=3 bus1="239461.1.2.3" bus2="239471.1.2.3" linecode="10_3" length=0.077990000 units=km
New "Line.SMT_16443" phases=3 bus1="239511.1.2.3" bus2="663171.1.2.3" linecode="13_3" length=0.074730000 units=km
New "Line.SMT_16439" phases=3 bus1="17CS500.1.2.3" bus2="255521.1.2.3" linecode="36_3" length=0.001020000 units=km
New "Line.SMT_16670" phases=3 bus1="239521.1.2.3" bus2="476541.1.2.3" linecode="10_3" length=0.159450000 units=km
New "Line.SMT_16687" phases=3 bus1="476541.1.2.3" bus2="476551.1.2.3" linecode="10_3" length=0.090430000 units=km
New "Line.SMT_16764" phases=3 bus1="476551.1.2.3" bus2="476561.1.2.3" linecode="10_3" length=0.169500000 units=km
New "Line.SMT_16851" phases=3 bus1="620881.1.2.3" bus2="255661.1.2.3" linecode="10_3" length=0.022830000 units=km
New "Line.SMT_16850" phases=3 bus1="267411.1.2.3" bus2="267421.1.2.3" linecode="10_3" length=0.045490000 units=km
New "Line.SMT_16897" phases=3 bus1="746831.1.2.3" bus2="476591.1.2.3" linecode="10_3" length=0.009700000 units=km
New "Line.SMT_16896" phases=3 bus1="476571.1.2.3" bus2="476581.1.2.3" linecode="10_3" length=0.151990000 units=km
New "Line.SMT_17181" phases=3 bus1="476561.1.2.3" bus2="476571.1.2.3" linecode="10_3" length=0.068510000 units=km
New "Line.SMT_17382" phases=3 bus1="267381.1.2.3" bus2="267391.1.2.3" linecode="10_3" length=0.033290000 units=km
New "Line.SMT_17539" phases=3 bus1="620921.1.2.3" bus2="620931.1.2.3" linecode="13_3" length=0.042450000 units=km
New "Line.SMT_17563" phases=3 bus1="255641.1.2.3" bus2="255651.1.2.3" linecode="10_3" length=0.031300000 units=km
New "Line.SMT_17989" phases=3 bus1="267431.1.2.3" bus2="255621.1.2.3" linecode="10_3" length=0.042940000 units=km
New "Line.SMT_17988" phases=3 bus1="620931.1.2.3" bus2="620941.1.2.3" linecode="13_3" length=0.022560000 units=km
New "Line.SMT_18116" phases=3 bus1="255651.1.2.3" bus2="620881.1.2.3" linecode="10_3" length=0.036720000 units=km
New "Line.SMT_18115" phases=3 bus1="255631.1.2.3" bus2="255641.1.2.3" linecode="10_3" length=0.025610000 units=km
New "Line.SMT_19392" phases=3 bus1="272891.1.2.3" bus2="363341.1.2.3" linecode="10_3" length=0.038890000 units=km
New "Line.SMT_19837" phases=3 bus1="296001.1.2.3" bus2="296011.1.2.3" linecode="10_3" length=0.107840000 units=km
New "Line.SMT_19835" phases=3 bus1="272071.1.2.3" bus2="272081.1.2.3" linecode="10_3" length=0.068010000 units=km
New "Line.SMT_19903" phases=3 bus1="297691.1.2.3" bus2="625021.1.2.3" linecode="10_3" length=0.016160000 units=km
New "Line.SMT_19894" phases=3 bus1="361881.1.2.3" bus2="218861.1.2.3" linecode="36_3" length=0.018720000 units=km
New "Line.SMT_19945" phases=3 bus1="549641.1.2.3" bus2="549651.1.2.3" linecode="3_3" length=0.013600000 units=km
New "Line.SMT_19942" phases=3 bus1="620941.1.2.3" bus2="620951.1.2.3" linecode="13_3" length=0.045450000 units=km
New "Line.SMT_19938" phases=3 bus1="219541.1.2.3" bus2="360001.1.2.3" linecode="36_3" length=0.024060000 units=km
New "Line.SMT_19993" phases=3 bus1="17CS290.1.2.3" bus2="273031.1.2.3" linecode="10_3" length=0.033990000 units=km
New "Line.SMT_19991" phases=3 bus1="255621.1.2.3" bus2="255631.1.2.3" linecode="10_3" length=0.021400000 units=km
New "Line.SMT_19990" phases=3 bus1="272991.1.2.3" bus2="272981.1.2.3" linecode="36_3" length=0.030230000 units=km
New "Line.SMT_19998" phases=3 bus1="363341.1.2.3" bus2="272901.1.2.3" linecode="10_3" length=0.018800000 units=km
New "Line.SMT_20281" phases=3 bus1="620901.1.2.3" bus2="620911.1.2.3" linecode="13_3" length=0.032200000 units=km
New "Line.SMT_20280" phases=3 bus1="267421.1.2.3" bus2="267431.1.2.3" linecode="10_3" length=0.041180000 units=km
New "Line.SMT_20277" phases=3 bus1="344571.1.2.3" bus2="279191.1.2.3" linecode="10_3" length=0.028360000 units=km
New "Line.SMT_20310" phases=3 bus1="272921.1.2.3" bus2="363331.1.2.3" linecode="10_3" length=0.032230000 units=km
New "Line.SMT_20319" phases=3 bus1="639531.1.2.3" bus2="639521.1.2.3" linecode="10_3" length=0.034480000 units=km
New "Line.SMT_20318" phases=3 bus1="351411.1.2.3" bus2="297661.1.2.3" linecode="10_3" length=0.008070000 units=km
New "Line.SMT_20317" phases=3 bus1="297671.1.2.3" bus2="351411.1.2.3" linecode="10_3" length=0.016030000 units=km
New "Line.SMT_20316" phases=3 bus1="278561.1.2.3" bus2="278641.1.2.3" linecode="10_3" length=0.033570000 units=km
New "Line.SMT_20412" phases=1 bus1="250931.2" bus2="250941.2" linecode="1_1" length=0.095220000 units=km
New "Line.SMT_20481" phases=3 bus1="298561.1.2.3" bus2="298571.1.2.3" linecode="10_3" length=0.097420000 units=km
New "Line.SMT_22939" phases=3 bus1="268211.1.2.3" bus2="268221.1.2.3" linecode="10_3" length=0.098130000 units=km
New "Line.SMT_23107" phases=3 bus1="243281.1.2.3" bus2="328591.1.2.3" linecode="10_3" length=0.003390000 units=km
New "Line.SMT_23106" phases=3 bus1="17CF607.1.2.3" bus2="295991.1.2.3" linecode="10_3" length=0.073900000 units=km
New "Line.SMT_23157" phases=3 bus1="219511.1.2.3" bus2="218881.1.2.3" linecode="36_3" length=0.048370000 units=km
New "Line.SMT_23155" phases=3 bus1="218861.1.2.3" bus2="218851.1.2.3" linecode="36_3" length=0.039960000 units=km
New "Line.SMT_23152" phases=3 bus1="218851.1.2.3" bus2="218841.1.2.3" linecode="36_3" length=0.038950000 units=km
New "Line.SMT_23150" phases=3 bus1="344571.1.2.3" bus2="279331.1.2.3" linecode="10_3" length=0.019010000 units=km
New "Line.SMT_23149" phases=3 bus1="279331.1.2.3" bus2="279321.1.2.3" linecode="10_3" length=0.026250000 units=km
New "Line.SMT_23210" phases=3 bus1="363341.1.2.3" bus2="269261.1.2.3" linecode="10_3" length=0.005210000 units=km
New "Line.SMT_23208" phases=3 bus1="273031.1.2.3" bus2="272891.1.2.3" linecode="10_3" length=0.032250000 units=km
New "Line.SMT_23204" phases=3 bus1="17CS37.1.2.3" bus2="272961.1.2.3" linecode="36_3" length=0.002830000 units=km
New "Line.SMT_23203" phases=3 bus1="620911.1.2.3" bus2="620921.1.2.3" linecode="13_3" length=0.015520000 units=km
New "Line.SMT_23202" phases=3 bus1="267391.1.2.3" bus2="267411.1.2.3" linecode="10_3" length=0.058310000 units=km
New "Line.SMT_23201" phases=3 bus1="219551.1.2.3" bus2="219541.1.2.3" linecode="36_3" length=0.035360000 units=km
New "Line.SMT_23261" phases=3 bus1="297701.1.2.3" bus2="297711.1.2.3" linecode="10_3" length=0.030020000 units=km
New "Line.SMT_23259" phases=3 bus1="278621.1.2.3" bus2="278611.1.2.3" linecode="10_3" length=0.019730000 units=km
New "Line.SMT_23258" phases=3 bus1="297691.1.2.3" bus2="297681.1.2.3" linecode="10_3" length=0.024330000 units=km
New "Line.SMT_23257" phases=3 bus1="297681.1.2.3" bus2="297671.1.2.3" linecode="10_3" length=0.027660000 units=km
New "Line.SMT_23256" phases=3 bus1="297641.1.2.3" bus2="635161.1.2.3" linecode="10_3" length=0.055850000 units=km
New "Line.SMT_23309" phases=3 bus1="661051.1.2.3" bus2="661321.1.2.3" linecode="13_3" length=0.035440000 units=km
New "Line.SMT_23312" phases=3 bus1="344571.1.2.3" bus2="310831.1.2.3" linecode="10_3" length=0.014640000 units=km
New "Line.SMT_23311" phases=3 bus1="661361.1.2.3" bus2="661371.1.2.3" linecode="13_3" length=0.007210000 units=km
New "Line.SMT_23310" phases=3 bus1="661321.1.2.3" bus2="661361.1.2.3" linecode="13_3" length=0.041340000 units=km
New "Line.SMT_23989" phases=3 bus1="661061.1.2.3" bus2="661031.1.2.3" linecode="13_3" length=0.070150000 units=km
New "Line.SMT_23988" phases=3 bus1="661061.1.2.3" bus2="663851.1.2.3" linecode="13_3" length=0.005540000 units=km
New "Line.SMT_23987" phases=3 bus1="661041.1.2.3" bus2="661051.1.2.3" linecode="13_3" length=0.031050000 units=km
New "Line.SMT_23986" phases=3 bus1="661011.1.2.3" bus2="661041.1.2.3" linecode="13_3" length=0.034210000 units=km
New "Line.SMT_23985" phases=3 bus1="661031.1.2.3" bus2="661011.1.2.3" linecode="13_3" length=0.038830000 units=km
New "Line.SMT_23984" phases=3 bus1="297711.1.2.3" bus2="661061.1.2.3" linecode="10_3" length=0.016060000 units=km
New "Line.SMT_24522" phases=3 bus1="267771.1.2.3" bus2="267761.1.2.3" linecode="13_3" length=0.022440000 units=km
New "Line.SMT_24521" phases=3 bus1="267781.1.2.3" bus2="267771.1.2.3" linecode="13_3" length=0.046210000 units=km
New "Line.SMT_24519" phases=3 bus1="218871.1.2.3" bus2="267781.1.2.3" linecode="13_3" length=0.051870000 units=km
New "Line.SMT_24518" phases=3 bus1="361881.1.2.3" bus2="218871.1.2.3" linecode="13_3" length=0.004680000 units=km
New "Line.SMT_24516" phases=3 bus1="267761.1.2.3" bus2="618071.1.2.3" linecode="13_3" length=0.048020000 units=km
New "Line.SMT_24619" phases=3 bus1="273061.1.2.3" bus2="360421.1.2.3" linecode="36_3" length=0.039960000 units=km
New "Line.SMT_24618" phases=3 bus1="255641.1.2.3" bus2="192631.1.2.3" linecode="10_3" length=0.011180000 units=km
New "Line.SMT_24616" phases=3 bus1="255631.1.2.3" bus2="620901.1.2.3" linecode="13_3" length=0.036720000 units=km
New "Line.SMT_25160" phases=3 bus1="549701.1.2.3" bus2="549711.1.2.3" linecode="10_3" length=0.013040000 units=km
New "Line.SMT_25159" phases=3 bus1="549691.1.2.3" bus2="549701.1.2.3" linecode="10_3" length=0.012040000 units=km
New "Line.SMT_25158" phases=3 bus1="549681.1.2.3" bus2="549691.1.2.3" linecode="10_3" length=0.013600000 units=km
New "Line.SMT_26734" phases=3 bus1="269251.1.2.3" bus2="278541.1.2.3" linecode="10_3" length=0.043420000 units=km
New "Line.SMT_27376" phases=3 bus1="672781.1.2.3" bus2="672791.1.2.3" linecode="10_3" length=0.050920000 units=km
New "Line.SMT_27375" phases=3 bus1="672771.1.2.3" bus2="672781.1.2.3" linecode="10_3" length=0.034530000 units=km
New "Line.SMT_27374" phases=3 bus1="672761.1.2.3" bus2="672771.1.2.3" linecode="10_3" length=0.053600000 units=km
New "Line.SMT_27373" phases=3 bus1="350451.1.2.3" bus2="672761.1.2.3" linecode="10_3" length=0.061980000 units=km
New "Line.SMT_27372" phases=3 bus1="268131.1.2.3" bus2="350451.1.2.3" linecode="10_3" length=0.098840000 units=km
New "Line.SMT_27371" phases=3 bus1="272161.1.2.3" bus2="268131.1.2.3" linecode="10_3" length=0.086980000 units=km
New "Line.SMT_27370" phases=3 bus1="272131.1.2.3" bus2="272161.1.2.3" linecode="10_3" length=0.128230000 units=km
New "Line.SMT_27728" phases=3 bus1="329321.1.2.3" bus2="329311.1.2.3" linecode="10_3" length=0.004960000 units=km
New "Line.SMT_27726" phases=3 bus1="288381.1.2.3" bus2="288371.1.2.3" linecode="36_3" length=0.057010000 units=km
New "Line.SMT_28436" phases=3 bus1="272061.1.2.3" bus2="727431.1.2.3" linecode="10_3" length=0.003080000 units=km
New "Line.SMT_29404" phases=3 bus1="674621.1.2.3" bus2="674641.1.2.3" linecode="10_3" length=0.010000000 units=km
New "Line.SMT_29403" phases=3 bus1="549741.1.2.3" bus2="674621.1.2.3" linecode="10_3" length=0.023000000 units=km
New "Line.SMT_29507" phases=3 bus1="651451.1.2.3" bus2="682181.1.2.3" linecode="10_3" length=0.066480000 units=km
New "Line.SMT_29505" phases=1 bus1="295991.1" bus2="688781.1" linecode="1_1" length=0.013460000 units=km
New "Line.SMT_29520" phases=3 bus1="298611.1.2.3" bus2="378351.1.2.3" linecode="10_3" length=0.023850000 units=km
New "Line.SMT_29519" phases=3 bus1="633171.1.2.3" bus2="298611.1.2.3" linecode="10_3" length=0.047010000 units=km
New "Line.SMT_29847" phases=3 bus1="476581.1.2.3" bus2="746831.1.2.3" linecode="10_3" length=0.142530000 units=km
New "Line.SMT_29854" phases=3 bus1="746831.1.2.3" bus2="746961.1.2.3" linecode="10_3" length=0.002700000 units=km
New "Line.SMT_29853" phases=3 bus1="746881.1.2.3" bus2="746891.1.2.3" linecode="10_3" length=0.081410000 units=km
New "Line.SMT_29852" phases=3 bus1="746871.1.2.3" bus2="746881.1.2.3" linecode="10_3" length=0.109880000 units=km
New "Line.SMT_29851" phases=3 bus1="746861.1.2.3" bus2="746871.1.2.3" linecode="10_3" length=0.097020000 units=km
New "Line.SMT_29850" phases=3 bus1="746851.1.2.3" bus2="746861.1.2.3" linecode="10_3" length=0.117780000 units=km
New "Line.SMT_29849" phases=3 bus1="746841.1.2.3" bus2="746851.1.2.3" linecode="10_3" length=0.111230000 units=km
New "Line.SMT_29848" phases=3 bus1="17CF1434.1.2.3" bus2="746841.1.2.3" linecode="10_3" length=0.074240000 units=km
New "Line.SMT_30346" phases=3 bus1="17CF1514.1.2.3" bus2="687351.1.2.3" linecode="10_3" length=0.070700000 units=km
New "Line.SMT_30345" phases=3 bus1="687351.1.2.3" bus2="689771.1.2.3" linecode="10_3" length=0.073500000 units=km
New "Line.SMT_30344" phases=3 bus1="689771.1.2.3" bus2="268201.1.2.3" linecode="10_3" length=0.086820000 units=km
New "Line.SMT_30343" phases=3 bus1="687341.1.2.3" bus2="689781.1.2.3" linecode="10_3" length=0.006670000 units=km
New "Line.SMT_30342" phases=3 bus1="268181.1.2.3" bus2="687341.1.2.3" linecode="10_3" length=0.071180000 units=km
New "Line.SMT_30891" phases=1 bus1="736051.1" bus2="268231.1" linecode="1_1" length=0.299770000 units=km
New "Line.SMT_30890" phases=1 bus1="268221.1" bus2="736051.1" linecode="1_1" length=0.283830000 units=km
New "Line.SMT_30896" phases=1 bus1="750981.1" bus2="268361.1" linecode="1_1" length=0.085950000 units=km
New "Line.SMT_30895" phases=1 bus1="268351.1" bus2="750981.1" linecode="1_1" length=0.061650000 units=km
New "Line.SMT_30894" phases=1 bus1="388921.1" bus2="268351.1" linecode="1_1" length=0.046010000 units=km
New "Line.SMT_30893" phases=1 bus1="268331.1" bus2="388921.1" linecode="1_1" length=0.137000000 units=km
New "Line.SMT_9628" phases=3 bus1="272071.1.2.3" bus2="272111.1.2.3" linecode="10_3" length=0.091780000 units=km
New "Line.SMT_31940" phases=3 bus1="760431.1.2.3" bus2="760441.1.2.3" linecode="10_3" length=0.082000000 units=km
New "Line.SMT_31939" phases=3 bus1="760421.1.2.3" bus2="760431.1.2.3" linecode="10_3" length=0.150460000 units=km
New "Line.SMT_31938" phases=3 bus1="760411.1.2.3" bus2="760421.1.2.3" linecode="10_3" length=0.103330000 units=km
New "Line.SMT_31937" phases=3 bus1="689771.1.2.3" bus2="760411.1.2.3" linecode="10_3" length=0.103930000 units=km
New "Line.SMT_32605" phases=3 bus1="268161.1.2.3" bus2="764041.1.2.3" linecode="10_3" length=0.101290000 units=km
New "Line.SMT_32870" phases=3 bus1="278261.1.2.3" bus2="278271.1.2.3" linecode="10_3" length=0.100000000 units=km
New "Line.SMT_32869" phases=3 bus1="278241.1.2.3" bus2="278261.1.2.3" linecode="10_3" length=0.104690000 units=km
New "Line.SMT_32868" phases=3 bus1="278231.1.2.3" bus2="278241.1.2.3" linecode="10_3" length=0.076000000 units=km
New "Line.SMT_32867" phases=3 bus1="278221.1.2.3" bus2="278231.1.2.3" linecode="10_3" length=0.109770000 units=km
New "Line.SMT_32866" phases=3 bus1="278211.1.2.3" bus2="278221.1.2.3" linecode="10_3" length=0.111450000 units=km
New "Line.SMT_32865" phases=3 bus1="278201.1.2.3" bus2="278211.1.2.3" linecode="10_3" length=0.106470000 units=km
New "Line.SMT_32864" phases=3 bus1="278191.1.2.3" bus2="278201.1.2.3" linecode="10_3" length=0.095340000 units=km
New "Line.SMT_32863" phases=3 bus1="278181.1.2.3" bus2="278191.1.2.3" linecode="10_3" length=0.131750000 units=km
New "Line.SMT_32862" phases=3 bus1="239601.1.2.3" bus2="278181.1.2.3" linecode="10_3" length=0.099000000 units=km
New "Line.SMT_32861" phases=3 bus1="239591.1.2.3" bus2="239601.1.2.3" linecode="10_3" length=0.122050000 units=km
New "Line.SMT_32860" phases=3 bus1="239581.1.2.3" bus2="239591.1.2.3" linecode="10_3" length=0.109000000 units=km
New "Line.SMT_32859" phases=3 bus1="239571.1.2.3" bus2="239581.1.2.3" linecode="10_3" length=0.101120000 units=km
New "Line.SMT_32858" phases=3 bus1="765941.1.2.3" bus2="239571.1.2.3" linecode="10_3" length=0.111000000 units=km
New "Line.SMT_32857" phases=3 bus1="635361.1.2.3" bus2="239561.1.2.3" linecode="10_3" length=0.098000000 units=km
New "Line.SMT_32887" phases=3 bus1="278271.1.2.3" bus2="765981.1.2.3" linecode="10_3" length=0.071870000 units=km
New "Line.SMT_32886" phases=3 bus1="765961.1.2.3" bus2="765971.1.2.3" linecode="10_3" length=0.061430000 units=km
New "Line.SMT_32885" phases=3 bus1="279171.1.2.3" bus2="765961.1.2.3" linecode="10_3" length=0.053030000 units=km
New "Line.SMT_32884" phases=3 bus1="765981.1.2.3" bus2="765951.1.2.3" linecode="10_3" length=0.084380000 units=km
New "Line.SMT_32883" phases=3 bus1="17CF291.1.2.3" bus2="765941.1.2.3" linecode="10_3" length=0.001400000 units=km
New "Line.SMT_32882" phases=3 bus1="239561.1.2.3" bus2="765931.1.2.3" linecode="10_3" length=0.001900000 units=km
New "Line.SMT_32881" phases=3 bus1="278431.1.2.3" bus2="279171.1.2.3" linecode="10_3" length=0.073390000 units=km
New "Line.SMT_32880" phases=3 bus1="278421.1.2.3" bus2="278431.1.2.3" linecode="10_3" length=0.089810000 units=km
New "Line.SMT_32879" phases=3 bus1="278411.1.2.3" bus2="278421.1.2.3" linecode="10_3" length=0.082870000 units=km
New "Line.SMT_32878" phases=3 bus1="278401.1.2.3" bus2="278411.1.2.3" linecode="10_3" length=0.087000000 units=km
New "Line.SMT_32877" phases=3 bus1="278391.1.2.3" bus2="278401.1.2.3" linecode="10_3" length=0.116000000 units=km
New "Line.SMT_32876" phases=3 bus1="278381.1.2.3" bus2="278391.1.2.3" linecode="10_3" length=0.066750000 units=km
New "Line.SMT_32875" phases=3 bus1="278361.1.2.3" bus2="278381.1.2.3" linecode="10_3" length=0.046000000 units=km
New "Line.SMT_32874" phases=3 bus1="278351.1.2.3" bus2="278361.1.2.3" linecode="10_3" length=0.093190000 units=km
New "Line.SMT_32873" phases=3 bus1="278321.1.2.3" bus2="278351.1.2.3" linecode="10_3" length=0.083000000 units=km
New "Line.SMT_32872" phases=3 bus1="278311.1.2.3" bus2="278321.1.2.3" linecode="10_3" length=0.105000000 units=km
New "Line.SMT_32871" phases=3 bus1="765951.1.2.3" bus2="278311.1.2.3" linecode="10_3" length=0.100740000 units=km
New "Line.SMT_32908" phases=3 bus1="766061.1.2.3" bus2="766071.1.2.3" linecode="3_3" length=0.051690000 units=km
New "Line.SMT_32907" phases=3 bus1="766051.1.2.3" bus2="766061.1.2.3" linecode="3_3" length=0.058710000 units=km
New "Line.SMT_32906" phases=3 bus1="766031.1.2.3" bus2="766051.1.2.3" linecode="3_3" length=0.060000000 units=km
New "Line.SMT_32904" phases=3 bus1="766021.1.2.3" bus2="766031.1.2.3" linecode="3_3" length=0.058490000 units=km
New "Line.SMT_32903" phases=3 bus1="766011.1.2.3" bus2="766021.1.2.3" linecode="3_3" length=0.056050000 units=km
New "Line.SMT_32902" phases=3 bus1="652621.1.2.3" bus2="766011.1.2.3" linecode="3_3" length=0.051500000 units=km
New "Line.SMT_32901" phases=3 bus1="718151.1.2.3" bus2="766001.1.2.3" linecode="3_3" length=0.055940000 units=km
New "Line.SMT_32898" phases=3 bus1="718161.1.2.3" bus2="718151.1.2.3" linecode="3_3" length=0.013700000 units=km
New "Line.SMT_32897" phases=3 bus1="766171.1.2.3" bus2="652621.1.2.3" linecode="3_3" length=0.048560000 units=km
New "Line.SMT_32895" phases=3 bus1="766132.1.2.3" bus2="272061.1.2.3" linecode="10_3" length=0.073660000 units=km
New "Line.SMT_32894" phases=3 bus1="200492.1.2.3" bus2="200501.1.2.3" linecode="10_3" length=0.037540000 units=km
New "Line.SMT_32893" phases=3 bus1="766111.1.2.3" bus2="200492.1.2.3" linecode="3_3" length=0.053860000 units=km
New "Line.SMT_32918" phases=3 bus1="17FR1693.1.2.3" bus2="766171.1.2.3" linecode="3_3" length=0.000490000 units=km
New "Line.SMT_32917" phases=3 bus1="766001.1.2.3" bus2="766161.1.2.3" linecode="3_3" length=0.004140000 units=km
New "Line.SMT_32914" phases=3 bus1="766121.1.2.3" bus2="766132.1.2.3" linecode="10_3" length=0.062970000 units=km
New "Line.SMT_32913" phases=3 bus1="766091.1.2.3" bus2="766121.1.2.3" linecode="3_3" length=0.049240000 units=km
New "Line.SMT_32912" phases=3 bus1="17CF964.1.2.3" bus2="766111.1.2.3" linecode="3_3" length=0.000960000 units=km
New "Line.SMT_32911" phases=3 bus1="766081.1.2.3" bus2="766101.1.2.3" linecode="3_3" length=0.001960000 units=km
New "Line.SMT_32910" phases=3 bus1="766081.1.2.3" bus2="766091.1.2.3" linecode="3_3" length=0.050700000 units=km
New "Line.SMT_32909" phases=3 bus1="766071.1.2.3" bus2="766081.1.2.3" linecode="3_3" length=0.054720000 units=km
New "Line.SMT_33029" phases=3 bus1="670641.1.2.3" bus2="766971.1.2.3" linecode="13_3" length=0.091200000 units=km
New "Line.SMT_33028" phases=3 bus1="272101.1.2.3" bus2="670641.1.2.3" linecode="13_3" length=0.041880000 units=km
New "Line.SMT_33027" phases=3 bus1="272091.1.2.3" bus2="272101.1.2.3" linecode="13_3" length=0.095190000 units=km
New "Line.SMT_33026" phases=3 bus1="272081.1.2.3" bus2="272091.1.2.3" linecode="13_3" length=0.100570000 units=km
New "Line.SMT_33030" phases=3 bus1="766971.1.2.3" bus2="766981.1.2.3" linecode="13_3" length=0.059710000 units=km
New "Line.SMT_33275" phases=3 bus1="768581.1.2.3" bus2="769471.1.2.3" linecode="10_3" length=0.002320000 units=km
New "Line.SMT_33281" phases=3 bus1="17CF1702.1.2.3" bus2="768591.1.2.3" linecode="10_3" length=0.048210000 units=km
New "Line.SMT_33280" phases=3 bus1="768631.1.2.3" bus2="768641.1.2.3" linecode="3_3" length=0.028060000 units=km
New "Line.SMT_33279" phases=3 bus1="768621.1.2.3" bus2="768631.1.2.3" linecode="3_3" length=0.028640000 units=km
New "Line.SMT_33278" phases=3 bus1="768611.1.2.3" bus2="768621.1.2.3" linecode="3_3" length=0.028420000 units=km
New "Line.SMT_33277" phases=3 bus1="768601.1.2.3" bus2="768611.1.2.3" linecode="3_3" length=0.032660000 units=km
New "Line.SMT_33276" phases=3 bus1="768591.1.2.3" bus2="768601.1.2.3" linecode="3_3" length=0.027830000 units=km
New "Line.SMT_33302" phases=3 bus1="651451.1.2.3" bus2="769741.1.2.3" linecode="10_3" length=0.075420000 units=km
